<?xml version="1.0" encoding="ISO-8859-1"?>
<febio_spec version="4.0">
	<Module type="solid">
		<units>mm-N-s</units>
	</Module>
	<Globals>
		<Constants>
			<T>0</T>
			<P>0</P>
			<R>8.31446e-06</R>
			<Fc>9.64853e-05</Fc>
		</Constants>
	</Globals>
	<Material>
		<material id="1" name="urethra" type="neo-Hookean">
			<density>1e-09</density>
			<E>1</E>
			<v>0.49</v>
		</material>
		<material id="2" name="catheter" type="neo-Hookean">
			<density>1e-09</density>
			<E>15</E>
			<v>0.44</v>
		</material>
	</Material>
	<Mesh>
		<Nodes name="catheter">
			<node id="1">1.96,-1.28075426e-05,64</node>
			<node id="2">1.96,-1.28075426e-05,0</node>
			<node id="3">2.94,-1.28075426e-05,64</node>
			<node id="4">2.94,-1.28075426e-05,0</node>
			<node id="5">2.78097799,0.953801349,64</node>
			<node id="6">2.32111467,1.80443357,64</node>
			<node id="7">1.60926542,2.46044748,64</node>
			<node id="8">0.723982945,2.84945183,64</node>
			<node id="9">-0.239618732,2.9302061,64</node>
			<node id="10">-1.17729888,2.69397445,64</node>
			<node id="11">-1.9876209,2.16631199,64</node>
			<node id="12">-2.58292559,1.40430033,64</node>
			<node id="13">-2.89881393,0.490372544,64</node>
			<node id="14">-2.90111367,-0.476604269,64</node>
			<node id="15">-2.58957605,-1.39202426,64</node>
			<node id="16">-1.99790264,-2.15685889,64</node>
			<node id="17">-1.19009963,-2.68836971,64</node>
			<node id="18">-0.238965053,-2.9302851,64</node>
			<node id="19">0.724618585,-2.84931586,64</node>
			<node id="20">1.60981426,-2.46011404,64</node>
<!-- ... 1759 like lines cut -->
		</Nodes>
		<Nodes name="urethra">
			<node id="1780">2,0,-100</node>
			<node id="1781">2,0,0</node>
			<node id="1782">1.73044191,1.00278152,-100</node>
			<node id="1783">1.02616618,1.71667789,-100</node>
			<node id="1784">0.0768603584,1.99852258,-100</node>
			<node id="1785">-0.985946697,1.74008882,-100</node>
			<node id="1786">-1.69984391,1.0538172,-100</node>
			<node id="1787">-1.99999897,0.00203120357,-100</node>
			<node id="1788">-1.71327587,-1.03183613,-100</node>
			<node id="1789">-0.945799637,-1.7622324,-100</node>
			<node id="1790">0.0891899166,-1.9980103,-100</node>
			<node id="1791">1.07948276,-1.68366178,-100</node>
			<node id="1792">1.75484551,-0.959435898,-100</node>
			<node id="1793">1.73044191,1.00278152,0</node>
			<node id="1794">1.02616618,1.71667789,0</node>
			<node id="1795">0.0768603584,1.99852258,0</node>
			<node id="1796">-0.985946697,1.74008882,0</node>
			<node id="1797">-1.69984391,1.0538172,0</node>
			<node id="1798">-1.99999897,0.00203120357,0</node>
			<node id="1799">-1.71327587,-1.03183613,0</node>
<!-- ... 1490 like lines cut -->
		</Nodes>
		<Elements type="tet4" name="Part1">
			<elem id="1">1177,1047,206,315</elem>
			<elem id="2">1324,1411,545,1323</elem>
			<elem id="3">281,49,50,1084</elem>
			<elem id="4">1123,172,171,120</elem>
			<elem id="5">122,1047,121,206</elem>
			<elem id="6">1346,568,702,1345</elem>
			<elem id="7">1132,48,280,62</elem>
			<elem id="8">287,19,32,1099</elem>
			<elem id="9">980,992,894,1735</elem>
			<elem id="10">1753,1697,892,965</elem>
			<elem id="11">1067,158,104,159</elem>
			<elem id="12">396,249,397,1203</elem>
			<elem id="13">143,1017,83,84</elem>
			<elem id="14">100,244,1115,156</elem>
			<elem id="15">204,1175,1044,1174</elem>
			<elem id="16">121,1047,122,173</elem>
			<elem id="17">881,1725,880,768</elem>
			<elem id="18">1249,1328,1337,415</elem>
			<elem id="19">1122,1208,1073,262</elem>
			<elem id="20">369,1359,507,506</elem>
<!-- ... 5266 like lines cut -->
		</Elements>
		<Elements type="tet4" name="Part2">
			<elem id="5287">2231,3169,2013,2014</elem>
			<elem id="5288">2455,2454,3203,2634</elem>
			<elem id="5289">3254,2160,1946,2314</elem>
			<elem id="5290">3027,3241,3039,3081</elem>
			<elem id="5291">3257,1942,1858,3172</elem>
			<elem id="5292">2899,2835,3260,3163</elem>
			<elem id="5293">3227,2409,2408,2588</elem>
			<elem id="5294">2495,3165,3259,2538</elem>
			<elem id="5295">3227,2951,3075,3228</elem>
			<elem id="5296">2587,2775,3227,2588</elem>
			<elem id="5297">3261,1951,1876,3190</elem>
			<elem id="5298">3028,2842,3174,3287</elem>
			<elem id="5299">3006,3073,3100,3218</elem>
			<elem id="5300">2972,3180,2796,2797</elem>
			<elem id="5301">2265,3201,2048,3202</elem>
			<elem id="5302">3196,2115,1883,1884</elem>
			<elem id="5303">2948,3225,3224,2772</elem>
			<elem id="5304">2851,3208,2900,3210</elem>
			<elem id="5305">2961,3157,3171,3113</elem>
			<elem id="5306">2342,2464,2543,3207</elem>
<!-- ... 4093 like lines cut -->
		</Elements>
		<NodeSet name="ZeroDisplacement4">
			1163, 1164, 1283, 1284, 1285, 1427, 1475, 1488,
			1529, 1542, 1619, 1644, 1651, 1670, 1690, 1737,
			1752, 1773
		</NodeSet>
		<NodeSet name="PrescribedDisplacement3">
			1780, 1782, 1783, 1784, 1785, 1786, 1787, 1788,
			1789, 1790, 1791, 1792, 1890, 1891, 1892, 1893,
			1894, 1895, 1896, 1897, 1898, 1899, 1900, 1901,
			1902, 1903, 1904, 1905, 1906, 1907, 1958, 1959,
			1960, 1961, 1962, 2048, 2049, 2050, 2051, 2052,
			2053, 2054, 2055, 2056, 2057, 2058, 2059, 2070,
			2071, 2072, 2073, 2074, 2075, 2118, 2119, 2120,
			2121, 2122, 2123, 2124, 2125, 2126, 2129, 2172,
			2173, 2174, 2175, 2176, 2177, 2178, 2265, 2266,
			2267, 2268, 2269, 2270, 2271, 2272, 2273, 2274,
			2275, 2276, 2284, 2286, 2326, 2327, 2328, 2329,
			2330, 2331, 2332, 2340, 2341, 2342, 2346, 2366,
			2367, 2453, 2454, 2455, 2456, 2457, 2458, 2459,
			2460, 2464, 2468, 2476, 2477, 2478, 2519, 2520,
			2521, 2522, 2523, 2528, 2533, 2543, 2544, 2545,
			2632, 2633, 2634, 2635, 2636, 2637, 2638, 2639,
			2640, 2650, 2654, 2659, 2683, 2687, 2700, 2703,
			2717, 2731, 2732, 2819, 2820, 2821, 2822, 2823,
			2824, 2825, 2827, 2828, 2834, 2839, 2858, 2868,
			2871, 2881, 2886, 2908, 2995, 2996, 2997, 2998,
<!-- ... 4 like lines cut -->
		</NodeSet>
		<Edge name="ZeroDisplacement5">
			<line2 id="1">49,50</line2>
			<line2 id="2">40,41</line2>
			<line2 id="3">35,4</line2>
			<line2 id="4">47,46</line2>
			<line2 id="5">42,43</line2>
			<line2 id="6">43,44</line2>
			<line2 id="7">37,36</line2>
			<line2 id="8">35,36</line2>
			<line2 id="9">48,47</line2>
			<line2 id="10">45,44</line2>
			<line2 id="11">49,48</line2>
			<line2 id="12">38,37</line2>
			<line2 id="13">38,39</line2>
			<line2 id="14">40,39</line2>
			<line2 id="15">4,52</line2>
			<line2 id="16">51,50</line2>
			<line2 id="17">51,52</line2>
			<line2 id="18">45,46</line2>
			<line2 id="19">41,42</line2>
		</Edge>
		<Edge name="ZeroDisplacement1">
			<line2 id="1">49,50</line2>
			<line2 id="2">25,26</line2>
			<line2 id="3">34,1</line2>
			<line2 id="4">3,5</line2>
			<line2 id="5">9,10</line2>
			<line2 id="6">3,22</line2>
			<line2 id="7">20,19</line2>
			<line2 id="8">6,7</line2>
			<line2 id="9">17,16</line2>
			<line2 id="10">40,41</line2>
			<line2 id="11">13,12</line2>
			<line2 id="12">30,31</line2>
			<line2 id="13">35,4</line2>
			<line2 id="14">47,46</line2>
			<line2 id="15">42,43</line2>
			<line2 id="16">8,9</line2>
			<line2 id="17">33,32</line2>
			<line2 id="18">43,44</line2>
			<line2 id="19">37,36</line2>
			<line2 id="20">35,36</line2>
<!-- ... 31 like lines cut -->
		</Edge>
		<Surface name="ZeroDisplacement2">
			<tri3 id="1">1905,1906,1790</tri3>
			<tri3 id="2">1901,1907,1902</tri3>
			<tri3 id="3">1791,1790,1906</tri3>
			<tri3 id="4">1782,1780,1901</tri3>
			<tri3 id="5">1791,1906,1792</tri3>
			<tri3 id="6">1789,1905,1790</tri3>
			<tri3 id="7">1902,1784,1783</tri3>
			<tri3 id="8">1784,1902,1903</tri3>
			<tri3 id="9">1906,1901,1792</tri3>
			<tri3 id="10">1903,1907,1904</tri3>
			<tri3 id="11">1907,1905,1904</tri3>
			<tri3 id="12">1792,1901,1780</tri3>
			<tri3 id="13">1905,1789,1788</tri3>
			<tri3 id="14">1906,1907,1901</tri3>
			<tri3 id="15">1902,1783,1782</tri3>
			<tri3 id="16">1788,1904,1905</tri3>
			<tri3 id="17">1903,1904,1786</tri3>
			<tri3 id="18">1903,1902,1907</tri3>
			<tri3 id="19">1901,1902,1782</tri3>
			<tri3 id="20">1788,1787,1904</tri3>
<!-- ... 4 like lines cut -->
		</Surface>
		<Surface name="SlidingElastic1Primary">
			<tri3 id="1">2231,2014,2013</tri3>
			<tri3 id="2">2455,2454,2634</tri3>
			<tri3 id="3">2160,1946,2314</tri3>
			<tri3 id="4">3027,3081,3039</tri3>
			<tri3 id="5">2409,2408,2588</tri3>
			<tri3 id="6">2587,2775,2588</tri3>
			<tri3 id="7">3006,3100,3073</tri3>
			<tri3 id="8">2972,2797,2796</tri3>
			<tri3 id="9">2115,1883,1884</tri3>
			<tri3 id="10">2961,3157,3113</tri3>
			<tri3 id="11">2342,2543,2464</tri3>
			<tri3 id="12">2903,2865,3063</tri3>
			<tri3 id="13">2851,2900,2852</tri3>
			<tri3 id="14">2543,2659,2464</tri3>
			<tri3 id="15">3133,3059,3023</tri3>
			<tri3 id="16">2079,2287,2130</tri3>
			<tri3 id="17">2160,2313,2106</tri3>
			<tri3 id="18">2832,2860,2534</tri3>
			<tri3 id="19">2015,2233,2016</tri3>
			<tri3 id="20">2829,2548,2887</tri3>
<!-- ... 2714 like lines cut -->
		</Surface>
		<Surface name="SlidingElastic1Secondary">
			<tri3 id="1">122,206,121</tri3>
			<tri3 id="2">980,894,992</tri3>
			<tri3 id="3">396,397,249</tri3>
			<tri3 id="4">881,768,880</tri3>
			<tri3 id="5">369,506,507</tri3>
			<tri3 id="6">203,453,312</tri3>
			<tri3 id="7">802,912,935</tri3>
			<tri3 id="8">608,829,707</tri3>
			<tri3 id="9">253,110,109</tri3>
			<tri3 id="10">66,65,209</tri3>
			<tri3 id="11">780,893,781</tri3>
			<tri3 id="12">78,79,294</tri3>
			<tri3 id="13">223,370,371</tri3>
			<tri3 id="14">25,26,283</tri3>
			<tri3 id="15">523,386,385</tri3>
			<tri3 id="16">987,967,900</tri3>
			<tri3 id="17">223,222,370</tri3>
			<tri3 id="18">665,664,779</tri3>
			<tri3 id="19">127,34,1</tri3>
			<tri3 id="20">253,109,252</tri3>
<!-- ... 1814 like lines cut -->
		</Surface>
		<PartList name="PrescribedDisplacement6">Part2</PartList>
		<SurfacePair name="SlidingElastic1">
			<primary>SlidingElastic1Primary</primary>
			<secondary>SlidingElastic1Secondary</secondary>
		</SurfacePair>
	</Mesh>
	<MeshDomains>
		<SolidDomain name="Part1" mat="urethra"/>
		<SolidDomain name="Part2" mat="catheter"/>
	</MeshDomains>
	<Boundary>
		<bc name="ZeroDisplacement1" node_set="@edge:ZeroDisplacement1" type="zero displacement">
			<x_dof>0</x_dof>
			<y_dof>0</y_dof>
			<z_dof>1</z_dof>
		</bc>
		<bc name="ZeroDisplacement2" node_set="@surface:ZeroDisplacement2" type="zero displacement">
			<x_dof>1</x_dof>
			<y_dof>1</y_dof>
			<z_dof>0</z_dof>
		</bc>
		<bc name="ZeroDisplacement4" node_set="ZeroDisplacement4" type="zero displacement">
			<x_dof>0</x_dof>
			<y_dof>0</y_dof>
			<z_dof>1</z_dof>
		</bc>
		<bc name="ZeroDisplacement5" node_set="@edge:ZeroDisplacement5" type="zero displacement">
			<x_dof>1</x_dof>
			<y_dof>1</y_dof>
			<z_dof>1</z_dof>
		</bc>
	</Boundary>
	<Contact>
		<contact name="SlidingElastic1" surface_pair="SlidingElastic1" type="sliding-elastic">
			<laugon>PENALTY</laugon>
			<tolerance>5e-05</tolerance>
			<gaptol>0.001</gaptol>
			<penalty>0.004</penalty>
			<auto_penalty>0</auto_penalty>
			<update_penalty>1</update_penalty>
			<two_pass>1</two_pass>
			<knmult>0</knmult>
			<search_tol>0.01</search_tol>
			<symmetric_stiffness>0</symmetric_stiffness>
			<search_radius>1</search_radius>
			<seg_up>0</seg_up>
			<tension>0</tension>
			<minaug>0</minaug>
			<maxaug>10</maxaug>
			<node_reloc>0</node_reloc>
			<fric_coeff>0.02</fric_coeff>
			<smooth_aug>1</smooth_aug>
			<flip_primary>0</flip_primary>
			<flip_secondary>0</flip_secondary>
			<shell_bottom_primary>0</shell_bottom_primary>
			<shell_bottom_secondary>0</shell_bottom_secondary>
			<offset>0</offset>
		</contact>
	</Contact>
	<Step>
		<step id="1" name="Step1">
			<Control>
				<analysis>STATIC</analysis>
				<time_steps>40</time_steps>
				<step_size>0.05</step_size>
				<plot_zero_state>0</plot_zero_state>
				<plot_range>0,-1</plot_range>
				<plot_level>PLOT_MAJOR_ITRS</plot_level>
				<output_level>OUTPUT_MAJOR_ITRS</output_level>
				<plot_stride>1</plot_stride>
				<output_stride>1</output_stride>
				<adaptor_re_solve>1</adaptor_re_solve>
				<time_stepper type="default">
					<max_retries>5</max_retries>
					<opt_iter>11</opt_iter>
					<dtmin>0</dtmin>
					<dtmax>0.1</dtmax>
					<aggressiveness>1</aggressiveness>
					<cutback>0.5</cutback>
					<dtforce>1</dtforce>
				</time_stepper>
				<solver type="solid">
					<symmetric_stiffness>preferred</symmetric_stiffness>
					<equation_scheme>staggered</equation_scheme>
					<equation_order>default</equation_order>
					<optimize_bw>0</optimize_bw>
					<lstol>0.9</lstol>
					<lsmin>0.01</lsmin>
					<lsiter>5</lsiter>
					<ls_check_jacobians>0</ls_check_jacobians>
					<max_refs>15</max_refs>
					<check_zero_diagonal>0</check_zero_diagonal>
					<zero_diagonal_tol>0</zero_diagonal_tol>
					<force_partition>0</force_partition>
					<reform_each_time_step>1</reform_each_time_step>
					<reform_augment>0</reform_augment>
					<diverge_reform>1</diverge_reform>
					<min_residual>1e-20</min_residual>
					<max_residual>0</max_residual>
					<dtol>0.001</dtol>
					<etol>0.01</etol>
					<rtol>0</rtol>
					<rhoi>-2</rhoi>
					<alpha>1</alpha>
					<beta>0.25</beta>
					<gamma>0.5</gamma>
					<logSolve>0</logSolve>
					<arc_length>0</arc_length>
					<arc_length_scale>0</arc_length_scale>
					<qn_method type="BFGS">
						<max_ups>10</max_ups>
						<max_buffer_size>0</max_buffer_size>
						<cycle_buffer>1</cycle_buffer>
						<cmax>100000</cmax>
					</qn_method>
				</solver>
			</Control>
			<Boundary>
				<bc name="event1" node_set="PrescribedDisplacement3" type="prescribed displacement">
					<dof>z</dof>
					<value lc="1">10</value>
					<relative>1</relative>
				</bc>
			</Boundary>
		</step>
		<step id="2" name="Step2">
			<Control>
				<analysis>STATIC</analysis>
				<time_steps>40</time_steps>
				<step_size>0.05</step_size>
				<plot_zero_state>0</plot_zero_state>
				<plot_range>0,-1</plot_range>
				<plot_level>PLOT_MAJOR_ITRS</plot_level>
				<output_level>OUTPUT_MAJOR_ITRS</output_level>
				<plot_stride>1</plot_stride>
				<output_stride>1</output_stride>
				<adaptor_re_solve>1</adaptor_re_solve>
				<time_stepper type="default">
					<max_retries>5</max_retries>
					<opt_iter>11</opt_iter>
					<dtmin>0</dtmin>
					<dtmax>0.1</dtmax>
					<aggressiveness>1</aggressiveness>
					<cutback>0.5</cutback>
					<dtforce>1</dtforce>
				</time_stepper>
				<solver type="solid">
					<symmetric_stiffness>preferred</symmetric_stiffness>
					<equation_scheme>staggered</equation_scheme>
					<equation_order>default</equation_order>
					<optimize_bw>0</optimize_bw>
					<lstol>0.9</lstol>
					<lsmin>0.01</lsmin>
					<lsiter>5</lsiter>
					<ls_check_jacobians>0</ls_check_jacobians>
					<max_refs>15</max_refs>
					<check_zero_diagonal>0</check_zero_diagonal>
					<zero_diagonal_tol>0</zero_diagonal_tol>
					<force_partition>0</force_partition>
					<reform_each_time_step>1</reform_each_time_step>
					<reform_augment>0</reform_augment>
					<diverge_reform>1</diverge_reform>
					<min_residual>1e-20</min_residual>
					<max_residual>0</max_residual>
					<dtol>0.001</dtol>
					<etol>0.01</etol>
					<rtol>0</rtol>
					<rhoi>-2</rhoi>
					<alpha>1</alpha>
					<beta>0.25</beta>
					<gamma>0.5</gamma>
					<logSolve>0</logSolve>
					<arc_length>0</arc_length>
					<arc_length_scale>0</arc_length_scale>
					<qn_method type="BFGS">
						<max_ups>10</max_ups>
						<max_buffer_size>0</max_buffer_size>
						<cycle_buffer>1</cycle_buffer>
						<cmax>100000</cmax>
					</qn_method>
				</solver>
			</Control>
			<Boundary>
				<bc name="event2" node_set="@part_list:PrescribedDisplacement6" type="prescribed displacement">
					<dof>z</dof>
					<value lc="1">10</value>
					<relative>1</relative>
				</bc>
			</Boundary>
		</step>
	</Step>
	<LoadData>
		<load_controller id="1" name="LC1" type="loadcurve">
			<interpolate>SMOOTH STEP</interpolate>
			<extend>CONSTANT</extend>
			<points>
				<pt>2,0</pt>
				<pt>4,1</pt>
			</points>
		</load_controller>
	</LoadData>
	<Output>
		<plotfile type="febio">
			<var type="displacement"/>
			<var type="stress"/>
			<var type="relative volume"/>
			<var type="contact pressure"/>
			<var type="contact gap"/>
			<var type="nodal contact gap"/>
			<var type="nodal contact pressure"/>
			<var type="contact traction"/>
			<var type="nodal contact traction"/>
			<var type="contact stick"/>
			<var type="contact force"/>
			<var type="contact area"/>
			<var type="contact penalty"/>
			<var type="contact status"/>
		</plotfile>
	</Output>
</febio_spec>
